parallel/no_load/80pc/TNB_DUMA_VLN.Txt

SYMMETRICAL COMPONENT VOLTAGES BY BUS (for 3-phase buses)

Bus               Mag:   V1 (kV)    p.u.     V2 (kV)   %V2/V1    V0 (kV)    %V0/V1

ppu_duma_33kv        18.93     0.9937  2.858E-008  1.509E-007 1.239E-009 6.546E-009
ppu_duma_11kv        6.111     0.9622  3.635E-008  5.949E-007 3.812E-007 6.238E-006
rpplngi2             6.243      0.983  3.637E-008  5.825E-007 3.902E-007 6.25E-006
pdtjlnmasjid         6.343     0.9988  3.639E-008  5.737E-007 3.971E-007 6.26E-006
bella                 6.41      1.009  3.64E-008  5.679E-007 4.016E-007 6.266E-006
pstpdgn              6.443      1.015  3.641E-008  5.651E-007 4.039E-007 6.269E-006
pamdra               6.125     0.9644  3.634E-008  5.933E-007 3.822E-007 6.241E-006
duma4                6.171     0.9717  3.629E-008  5.881E-007 4.322E-007 7.003E-006
plsdra               6.274     0.9879  3.62E-008  5.77E-007 5.274E-007 8.406E-006
ssu_uptwres_ir1      6.291     0.9906  3.617E-008  5.749E-007 5.289E-007 8.407E-006
atria_1              6.292     0.9907  3.635E-008  5.777E-007 3.933E-007 6.251E-006
hawker               6.322     0.9955  3.621E-008  5.728E-007 3.98E-007 6.296E-006
prmte                6.233     0.9815  3.614E-008  5.797E-007 5.004E-007 8.028E-006
prmta                6.254     0.9848  3.611E-008  5.773E-007 5.022E-007 8.029E-006
pmontb                6.27     0.9873  3.609E-008  5.756E-007 5.169E-007 8.244E-006
duma7                 6.16     0.9699  4.313E-008  7.002E-007 3.915E-007 6.356E-006
haus                 6.257     0.9853  5.444E-008   8.7E-007 2.752E-006 4.397E-005
duma6                6.521      1.027  1.068E-007  1.638E-006 1.215E-005 0.0001863
duma13                6.76      1.064  1.678E-007  2.482E-006 2.225E-005 0.0003291
ssu_duma5_im2        6.791      1.069  1.784E-007  2.626E-006 2.237E-005 0.0003294
plngi_b               6.18     0.9731  3.635E-008  5.881E-007 3.856E-007 6.239E-006
plngi_d              6.215     0.9786  3.635E-008  5.848E-007 3.878E-007 6.239E-006
pdtlitrak            6.423      1.011  3.607E-008  5.616E-007 4.115E-007 6.406E-006
duma12                6.55      1.031  3.593E-008  5.485E-007 4.243E-007 6.477E-006
tmngh4               6.671       1.05  3.581E-008  5.368E-007 5.614E-007 8.416E-006
ssu_tmegah3_ir1      6.719      1.058  3.575E-008  5.321E-007 6.184E-007 9.204E-006
tmngh2                6.74      1.061  3.573E-008  5.301E-007 6.436E-007 9.549E-006
sprk9                6.406      1.009  3.634E-008  5.673E-007 4.028E-007 6.288E-006
bomba                6.423      1.011  3.635E-008  5.66E-007 4.158E-007 6.474E-006
sprk8                6.465      1.018  3.637E-008  5.626E-007 4.496E-007 6.954E-006
ssu_uptwres_im2      6.162     0.9703  3.631E-008  5.892E-007 4.233E-007 6.869E-006
maybank              6.231     0.9812  3.627E-008  5.82E-007 4.282E-007 6.872E-006
duma8                6.244     0.9832  3.627E-008  5.809E-007 4.381E-007 7.016E-006
ssu_dsarcntr_ir1     6.146     0.9677  3.635E-008  5.914E-007 3.834E-007 6.237E-006
duma9                6.337     0.9978  3.64E-008  5.743E-007 3.969E-007 6.264E-006
duma1                 6.43      1.012  3.642E-008  5.664E-007 4.034E-007 6.273E-006
elite                6.463      1.018  3.643E-008  5.636E-007 4.057E-007 6.277E-006
duma10               6.274     0.9879  3.636E-008  5.795E-007 3.919E-007 6.246E-006
balaipolis           6.276     0.9882  3.636E-008  5.793E-007 3.92E-007 6.246E-006
ppu_duma_vcb1            0          0          0          0         0         0
